**
** Heading +++++++++++++++++++++++++++++++++++++++++++++++++
**
*Heading
Hash: lii3cGZ3, Date: 08/20/2024, Unit system: MM_TON_S_C
**
** Nodes +++++++++++++++++++++++++++++++++++++++++++++++++++
**
*Node
1, 0.00000000E+000, 0.00000000E+000, 0.00000000E+000
2, 0.00000000E+000, 0.00000000E+000, 8.00000000E+002
3, 5.00000000E+001, 0.00000000E+000, 8.00000000E+002
4, 5.00000000E+001, 0.00000000E+000, 0.00000000E+000
5, 5.00000000E+001, 5.00000000E+001, 8.00000000E+002
6, 5.00000000E+001, 5.00000000E+001, 0.00000000E+000
7, 0.00000000E+000, 5.00000000E+001, 8.00000000E+002
8, 0.00000000E+000, 5.00000000E+001, 0.00000000E+000
9, 0.00000000E+000, 0.00000000E+000, 1.04000000E+001
10, 0.00000000E+000, 0.00000000E+000, 2.08000000E+001
11, 0.00000000E+000, 0.00000000E+000, 3.04000000E+001
12, 0.00000000E+000, 0.00000000E+000, 4.08000000E+001
13, 0.00000000E+000, 0.00000000E+000, 5.04000000E+001
14, 0.00000000E+000, 0.00000000E+000, 6.08000000E+001
15, 0.00000000E+000, 0.00000000E+000, 7.04000000E+001
16, 0.00000000E+000, 0.00000000E+000, 8.08000000E+001
17, 0.00000000E+000, 0.00000000E+000, 9.04000000E+001
18, 0.00000000E+000, 0.00000000E+000, 1.00800000E+002
19, 0.00000000E+000, 0.00000000E+000, 1.10400000E+002
20, 0.00000000E+000, 0.00000000E+000, 1.20800000E+002
** ... 17068 like lines cut
**
** Elements ++++++++++++++++++++++++++++++++++++++++++++++++
**
*Element, Type=C3D10, Elset=Solid_part-1
1, 842, 1163, 196, 195, 8625, 5720, 4511, 4512, 5719, 4510
2, 1561, 285, 1238, 1560, 7170, 5956, 8626, 7172, 7168, 8627
3, 1959, 1623, 435, 352, 8628, 8629, 8630, 8583, 7362, 8631
4, 1570, 1569, 1283, 2432, 7199, 8632, 8633, 8634, 8635, 8636
5, 1995, 1996, 2314, 2495, 8637, 8638, 8639, 8640, 8641, 8642
6, 1601, 1602, 1763, 2407, 7295, 7791, 7790, 8643, 8644, 8645
7, 1601, 2054, 1763, 1762, 8646, 8647, 7790, 7788, 8648, 7792
8, 1258, 1424, 2459, 1457, 6575, 8649, 8650, 6656, 6689, 8651
9, 2382, 1005, 2439, 2338, 8652, 8653, 8654, 8655, 8656, 8657
10, 2564, 2165, 2674, 2675, 8658, 8659, 8660, 8661, 8662, 8663
11, 1727, 1900, 1871, 2646, 8287, 8181, 8113, 8664, 8665, 8666
12, 1438, 2534, 2042, 1234, 8667, 8668, 8669, 6612, 8670, 8671
13, 452, 618, 2122, 651, 3659, 8672, 8673, 3740, 3838, 8674
14, 1871, 1900, 1835, 2646, 8181, 8180, 8172, 8666, 8665, 8675
15, 2404, 1253, 2455, 2456, 8676, 8677, 8678, 8679, 8680, 8681
16, 2563, 2399, 1996, 1995, 8682, 8683, 8684, 8685, 8686, 8637
17, 2455, 1253, 1452, 2456, 8677, 6646, 8687, 8681, 8680, 8688
18, 2403, 1253, 2404, 2456, 8689, 8676, 8690, 8691, 8680, 8679
19, 1235, 1554, 1553, 2390, 8692, 7151, 8693, 8694, 8695, 8696
20, 2457, 2634, 2572, 2421, 8697, 8698, 8699, 8700, 8701, 8702
** ... 9686 like lines cut
**
** Node sets +++++++++++++++++++++++++++++++++++++++++++++++
**
*Nset, Nset=Internal_Selection-1_Displacement_Rotation-1
2, 3, 88, 89, 90, 91, 3023, 3026, 3030, 3034, 3038
*Nset, Nset=Internal_Selection-1_Displacement_Rotation-2
1, 4, 171, 172, 173, 174, 2707, 3043, 3162, 3165, 3295
**
** Element sets ++++++++++++++++++++++++++++++++++++++++++++
**
*Elset, Elset=Internal_Selection-1_Solid_Section-1
Solid_part-1
**
** Surfaces ++++++++++++++++++++++++++++++++++++++++++++++++
**
**
** Physical constants ++++++++++++++++++++++++++++++++++++++
**
**
** Coordinate systems ++++++++++++++++++++++++++++++++++++++
**
**
** Materials +++++++++++++++++++++++++++++++++++++++++++++++
**
*Material, Name=Steel
*Elastic
210000, 0.3
*Density
7.85E-09
**
** Sections ++++++++++++++++++++++++++++++++++++++++++++++++
**
*Solid section, Elset=Internal_Selection-1_Solid_Section-1, Material=Steel
**
** Pre-tension sections ++++++++++++++++++++++++++++++++++++
**
**
** Constraints +++++++++++++++++++++++++++++++++++++++++++++
**
**
** Surface interactions ++++++++++++++++++++++++++++++++++++
**
**
** Contact pairs +++++++++++++++++++++++++++++++++++++++++++
**
**
** Amplitudes ++++++++++++++++++++++++++++++++++++++++++++++
**
**
** Initial conditions ++++++++++++++++++++++++++++++++++++++
**
**
** Steps +++++++++++++++++++++++++++++++++++++++++++++++++++
**
**
** Step-1 ++++++++++++++++++++++++++++++++++++++++++++++++++
**
*Step
*Frequency
12
**
** Controls ++++++++++++++++++++++++++++++++++++++++++++++++
**
**
** Output frequency ++++++++++++++++++++++++++++++++++++++++
**
*Output, Frequency=1
**
** Boundary conditions +++++++++++++++++++++++++++++++++++++
**
*Boundary, op=New
** Name: Displacement_Rotation-1
*Boundary, Fixed
Internal_Selection-1_Displacement_Rotation-1, 1, 1
Internal_Selection-1_Displacement_Rotation-1, 2, 2
Internal_Selection-1_Displacement_Rotation-1, 3, 3
** Name: Displacement_Rotation-2
*Boundary, Fixed
Internal_Selection-1_Displacement_Rotation-2, 1, 1
Internal_Selection-1_Displacement_Rotation-2, 2, 2
**
** Loads +++++++++++++++++++++++++++++++++++++++++++++++++++
**
**
** Defined fields ++++++++++++++++++++++++++++++++++++++++++
**
**
** History outputs +++++++++++++++++++++++++++++++++++++++++
**
**
** Field outputs +++++++++++++++++++++++++++++++++++++++++++
**
*Node file
RF, U
*El file
S, E, NOE
**
** End step ++++++++++++++++++++++++++++++++++++++++++++++++
**
*End step
